    9
  Energy:   -179.086940927763
 H         -9.7115758291        2.0427622153        0.3654507522
 H        -10.0380489972        3.1170198230       -1.0137923760
 H        -10.2222411616        3.7227064237        0.6481771731
 H         -7.5302986664        2.8764099497       -0.6481761322
 H         -7.7144909861        3.4820969322        1.0137932532
 H         -8.0409640496        4.5563542098       -0.3654501501
 C         -9.6099119889        3.0765536238       -0.0000359857
 C         -8.1426279151        3.5225628886        0.0000368229
 F        12.0017428262       -0.0000208478       -0.0000038618
