    8
     -555.166548561431
 C         -0.5823513725       -0.0000432878       -1.3460817291
 N          0.3693005892       -0.0000387647       -2.4700730457
 H         -0.1204966688        0.0010920378       -0.3414253489
 H         -1.2293094569        0.8856901298       -1.4278171814
 H         -1.2277708869       -0.8870169421       -1.4265213984
 H          0.9821253219       -0.8130815547       -2.4088445418
 H          0.9807078857        0.8141593407       -2.4100378843
 Cl        25.0690016773        0.0000132840        1.6698084739